
** Library name: Project_416
** Cell name: inverter
** View name: schematic
.subckt inverter gnd in in_bar vdd
