
** Library name: Project_416
** Cell name: generate
** View name: schematic
.subckt generate a b g vdd gnd
