

.PROBE DC
+    I1(m1)
.PROBE TRAN
+    I1(m1)
.DC v0 0.0 2.0 100e-3

.TRAN 200e-3 30.0 START=0.0

.OP

.TEMP 25.0
.OPTION
+    ARTIST=2
+    INGOLD=2
+    PARHIER=LOCAL
+    PSF=2
