
** Library name: Project_416
** Cell name: full_adder
** View name: schematic
.subckt full_adder carry cin g gnd p sum vdd
