
** Library name: Project_416
** Cell name: Sum
** View name: schematic
.subckt Sum cin gnd p sum vdd
