

.PROBE TRAN
+    I(v0)
.TRAN 10e-9 3e-6 START=0.0

.OP

.TEMP 25.0
.OPTION
+    ARTIST=2
+    INGOLD=2
+    PARHIER=LOCAL
+    PSF=2
