
** Library name: Project_416
** Cell name: CBA_16bit
** View name: extracted
.subckt CBA_16bit_extracted a0 a1 a10 a11 a12 a13 a14 a15 a2 a3 a4 a5 a6 a7 a8 a9 b0 b1 b10 b11 b12 b13 b14 b15 b2 b3 b4 b5 b6 b7 b8 b9 cin cout s0 s1 s10 s11 s12 s13 s14 s15 s2 s3 s4 s5 s6 s7 s8 s9 vdd gnd
m0 vdd n284 n361 vdd tsmc20P L=200e-9 W=900e-9 AD=450e-15 AS=270e-15 PD=1.9e-6 PS=600e-9 M=1
m1 n361 n354 vdd vdd tsmc20P L=200e-9 W=900e-9 AD=270e-15 AS=450e-15 PD=600e-9 PS=1.9e-6 M=1
m2 vdd n272 n353 vdd tsmc20P L=200e-9 W=900e-9 AD=450e-15 AS=270e-15 PD=1.9e-6 PS=600e-9 M=1
m3 n353 n209 vdd vdd tsmc20P L=200e-9 W=900e-9 AD=270e-15 AS=450e-15 PD=600e-9 PS=1.9e-6 M=1
m4 vdd a0 n338 vdd tsmc20P L=200e-9 W=900e-9 AD=450e-15 AS=270e-15 PD=1.9e-6 PS=600e-9 M=1
m5 n338 b0 vdd vdd tsmc20P L=200e-9 W=900e-9 AD=270e-15 AS=450e-15 PD=600e-9 PS=1.9e-6 M=1
m6 vdd b15 n331 vdd tsmc20P L=200e-9 W=900e-9 AD=450e-15 AS=270e-15 PD=1.9e-6 PS=600e-9 M=1
m7 n331 a15 vdd vdd tsmc20P L=200e-9 W=900e-9 AD=270e-15 AS=450e-15 PD=600e-9 PS=1.9e-6 M=1
m8 vdd a1 n323 vdd tsmc20P L=200e-9 W=900e-9 AD=450e-15 AS=270e-15 PD=1.9e-6 PS=600e-9 M=1
m9 n323 b1 vdd vdd tsmc20P L=200e-9 W=900e-9 AD=270e-15 AS=450e-15 PD=600e-9 PS=1.9e-6 M=1
m10 vdd b14 n316 vdd tsmc20P L=200e-9 W=900e-9 AD=450e-15 AS=270e-15 PD=1.9e-6 PS=600e-9 M=1
m11 n316 a14 vdd vdd tsmc20P L=200e-9 W=900e-9 AD=270e-15 AS=450e-15 PD=600e-9 PS=1.9e-6 M=1
m12 vdd a2 n257 vdd tsmc20P L=200e-9 W=900e-9 AD=450e-15 AS=270e-15 PD=1.9e-6 PS=600e-9 M=1
m13 n257 b2 vdd vdd tsmc20P L=200e-9 W=900e-9 AD=270e-15 AS=450e-15 PD=600e-9 PS=1.9e-6 M=1
m14 vdd b13 n250 vdd tsmc20P L=200e-9 W=900e-9 AD=450e-15 AS=270e-15 PD=1.9e-6 PS=600e-9 M=1
m15 n250 a13 vdd vdd tsmc20P L=200e-9 W=900e-9 AD=270e-15 AS=450e-15 PD=600e-9 PS=1.9e-6 M=1
m16 vdd a3 n242 vdd tsmc20P L=200e-9 W=900e-9 AD=450e-15 AS=270e-15 PD=1.9e-6 PS=600e-9 M=1
m17 n242 b3 vdd vdd tsmc20P L=200e-9 W=900e-9 AD=270e-15 AS=450e-15 PD=600e-9 PS=1.9e-6 M=1
m18 vdd b12 n235 vdd tsmc20P L=200e-9 W=900e-9 AD=450e-15 AS=270e-15 PD=1.9e-6 PS=600e-9 M=1
m19 n235 a12 vdd vdd tsmc20P L=200e-9 W=900e-9 AD=270e-15 AS=450e-15 PD=600e-9 PS=1.9e-6 M=1
m20 vdd n358 n221 vdd tsmc20P L=200e-9 W=900e-9 AD=450e-15 AS=270e-15 PD=1.9e-6 PS=600e-9 M=1
m21 n221 n291 vdd vdd tsmc20P L=200e-9 W=900e-9 AD=270e-15 AS=450e-15 PD=600e-9 PS=1.9e-6 M=1
m22 vdd n213 n212 vdd tsmc20P L=200e-9 W=900e-9 AD=450e-15 AS=270e-15 PD=1.9e-6 PS=600e-9 M=1
m23 n212 n281 vdd vdd tsmc20P L=200e-9 W=900e-9 AD=270e-15 AS=450e-15 PD=600e-9 PS=1.9e-6 M=1
m24 vdd n128 n206 vdd tsmc20P L=200e-9 W=900e-9 AD=450e-15 AS=270e-15 PD=1.9e-6 PS=600e-9 M=1
m25 n206 n198 vdd vdd tsmc20P L=200e-9 W=900e-9 AD=270e-15 AS=450e-15 PD=600e-9 PS=1.9e-6 M=1
m26 vdd n116 n197 vdd tsmc20P L=200e-9 W=900e-9 AD=450e-15 AS=270e-15 PD=1.9e-6 PS=600e-9 M=1
m27 n197 n53 vdd vdd tsmc20P L=200e-9 W=900e-9 AD=270e-15 AS=450e-15 PD=600e-9 PS=1.9e-6 M=1
m28 vdd a4 n182 vdd tsmc20P L=200e-9 W=900e-9 AD=450e-15 AS=270e-15 PD=1.9e-6 PS=600e-9 M=1
m29 n182 b4 vdd vdd tsmc20P L=200e-9 W=900e-9 AD=270e-15 AS=450e-15 PD=600e-9 PS=1.9e-6 M=1
m30 vdd b11 n175 vdd tsmc20P L=200e-9 W=900e-9 AD=450e-15 AS=270e-15 PD=1.9e-6 PS=600e-9 M=1
m31 n175 a11 vdd vdd tsmc20P L=200e-9 W=900e-9 AD=270e-15 AS=450e-15 PD=600e-9 PS=1.9e-6 M=1
m32 vdd a5 n167 vdd tsmc20P L=200e-9 W=900e-9 AD=450e-15 AS=270e-15 PD=1.9e-6 PS=600e-9 M=1
m33 n167 b5 vdd vdd tsmc20P L=200e-9 W=900e-9 AD=270e-15 AS=450e-15 PD=600e-9 PS=1.9e-6 M=1
m34 vdd b10 n160 vdd tsmc20P L=200e-9 W=900e-9 AD=450e-15 AS=270e-15 PD=1.9e-6 PS=600e-9 M=1
m35 n160 a10 vdd vdd tsmc20P L=200e-9 W=900e-9 AD=270e-15 AS=450e-15 PD=600e-9 PS=1.9e-6 M=1
m36 vdd a6 n101 vdd tsmc20P L=200e-9 W=900e-9 AD=450e-15 AS=270e-15 PD=1.9e-6 PS=600e-9 M=1
m37 n101 b6 vdd vdd tsmc20P L=200e-9 W=900e-9 AD=270e-15 AS=450e-15 PD=600e-9 PS=1.9e-6 M=1
m38 vdd b9 n94 vdd tsmc20P L=200e-9 W=900e-9 AD=450e-15 AS=270e-15 PD=1.9e-6 PS=600e-9 M=1
m39 n94 a9 vdd vdd tsmc20P L=200e-9 W=900e-9 AD=270e-15 AS=450e-15 PD=600e-9 PS=1.9e-6 M=1
m40 vdd a7 n86 vdd tsmc20P L=200e-9 W=900e-9 AD=450e-15 AS=270e-15 PD=1.9e-6 PS=600e-9 M=1
m41 n86 b7 vdd vdd tsmc20P L=200e-9 W=900e-9 AD=270e-15 AS=450e-15 PD=600e-9 PS=1.9e-6 M=1
m42 vdd b8 n79 vdd tsmc20P L=200e-9 W=900e-9 AD=450e-15 AS=270e-15 PD=1.9e-6 PS=600e-9 M=1
m43 n79 a8 vdd vdd tsmc20P L=200e-9 W=900e-9 AD=270e-15 AS=450e-15 PD=600e-9 PS=1.9e-6 M=1
m44 vdd n202 n65 vdd tsmc20P L=200e-9 W=900e-9 AD=450e-15 AS=270e-15 PD=1.9e-6 PS=600e-9 M=1
m45 n65 n135 vdd vdd tsmc20P L=200e-9 W=900e-9 AD=270e-15 AS=450e-15 PD=600e-9 PS=1.9e-6 M=1
m46 vdd n57 n56 vdd tsmc20P L=200e-9 W=900e-9 AD=450e-15 AS=270e-15 PD=1.9e-6 PS=600e-9 M=1
m47 n56 n125 vdd vdd tsmc20P L=200e-9 W=900e-9 AD=270e-15 AS=450e-15 PD=600e-9 PS=1.9e-6 M=1
c48 gnd n361 45.59e-18 M=1
c49 gnd n358 153.26e-18 M=1
c50 gnd n357 95.06e-18 M=1
c51 gnd n356 73.72e-18 M=1
c52 gnd n354 157.14e-18 M=1
c53 gnd n353 45.59e-18 M=1
c54 gnd n350 73.72e-18 M=1
c55 gnd n349 67.9e-18 M=1
c56 gnd n348 73.72e-18 M=1
c57 gnd n346 25.22e-18 M=1
c58 gnd n345 73.72e-18 M=1
c59 gnd n344 73.72e-18 M=1
c60 gnd n343 60.14e-18 M=1
c61 gnd n342 73.72e-18 M=1
c62 gnd n340 73.72e-18 M=1
c63 gnd n338 21.34e-18 M=1
c64 gnd n337 54.32e-18 M=1
c65 gnd n335 54.32e-18 M=1
c66 gnd n333 73.72e-18 M=1
c67 gnd n332 25.22e-18 M=1
c68 gnd n331 21.34e-18 M=1
c69 gnd n330 25.22e-18 M=1
c70 gnd n328 120.28e-18 M=1
c71 gnd n327 60.14e-18 M=1
c72 gnd n324 25.22e-18 M=1
c73 gnd n323 21.34e-18 M=1
c74 gnd n322 25.22e-18 M=1
c75 gnd n321 73.72e-18 M=1
c76 gnd n318 67.9e-18 M=1
c77 gnd n317 67.9e-18 M=1
c78 gnd n316 21.34e-18 M=1
c79 gnd n315 73.72e-18 M=1
c80 gnd n313 73.72e-18 M=1
c81 gnd n312 73.72e-18 M=1
c82 gnd n311 60.14e-18 M=1
c83 gnd n310 120.28e-18 M=1
c84 gnd n307 73.72e-18 M=1
c85 gnd n306 73.72e-18 M=1
c86 gnd n305 73.72e-18 M=1
c87 gnd n304 54.32e-18 M=1
c88 gnd n303 54.32e-18 M=1
c89 gnd n299 73.72e-18 M=1
c90 gnd n298 120.28e-18 M=1
c91 gnd n297 60.14e-18 M=1
c92 gnd n296 73.72e-18 M=1
c93 gnd n291 157.14e-18 M=1
c94 gnd n290 67.9e-18 M=1
c95 gnd n289 73.72e-18 M=1
c96 gnd n286 73.72e-18 M=1
c97 gnd n285 67.9e-18 M=1
c98 gnd n284 153.26e-18 M=1
c99 gnd n281 153.26e-18 M=1
c100 gnd n279 73.72e-18 M=1
c101 gnd n278 60.14e-18 M=1
c102 gnd n277 120.28e-18 M=1
c103 gnd n276 73.72e-18 M=1
c104 gnd n272 157.14e-18 M=1
c105 gnd n270 54.32e-18 M=1
c106 gnd n269 54.32e-18 M=1
c107 gnd n268 73.72e-18 M=1
c108 gnd n267 73.72e-18 M=1
c109 gnd n266 73.72e-18 M=1
c110 gnd n264 120.28e-18 M=1
c111 gnd n263 60.14e-18 M=1
c112 gnd n261 73.72e-18 M=1
c113 gnd n260 73.72e-18 M=1
c114 gnd n258 73.72e-18 M=1
c115 gnd n257 21.34e-18 M=1
c116 gnd n256 67.9e-18 M=1
c117 gnd n255 67.9e-18 M=1
c118 gnd n252 73.72e-18 M=1
c119 gnd n251 25.22e-18 M=1
c120 gnd n250 21.34e-18 M=1
c121 gnd n249 25.22e-18 M=1
c122 gnd n247 60.14e-18 M=1
c123 gnd n246 120.28e-18 M=1
c124 gnd n244 25.22e-18 M=1
c125 gnd n242 21.34e-18 M=1
c126 gnd n241 25.22e-18 M=1
c127 gnd n240 73.72e-18 M=1
c128 gnd n238 54.32e-18 M=1
c129 gnd n236 54.32e-18 M=1
c130 gnd n235 21.34e-18 M=1
c131 gnd n234 73.72e-18 M=1
c132 gnd n232 73.72e-18 M=1
c133 gnd n231 60.14e-18 M=1
c134 gnd n230 73.72e-18 M=1
c135 gnd n229 73.72e-18 M=1
c136 gnd n226 73.72e-18 M=1
c137 gnd n225 67.9e-18 M=1
c138 gnd n224 73.72e-18 M=1
c139 gnd n221 45.59e-18 M=1
c140 gnd n220 25.22e-18 M=1
c141 gnd n218 73.72e-18 M=1
c142 gnd n217 95.06e-18 M=1
c143 gnd n215 194e-18 M=1
c144 gnd n213 157.14e-18 M=1
c145 gnd n212 45.59e-18 M=1
c146 gnd n209 153.26e-18 M=1
c147 gnd n206 45.59e-18 M=1
c148 gnd n204 194e-18 M=1
c149 gnd n202 153.26e-18 M=1
c150 gnd n201 95.06e-18 M=1
c151 gnd n200 73.72e-18 M=1
c152 gnd n198 157.14e-18 M=1
c153 gnd n197 45.59e-18 M=1
c154 gnd n194 73.72e-18 M=1
c155 gnd n193 67.9e-18 M=1
c156 gnd n192 73.72e-18 M=1
c157 gnd n190 25.22e-18 M=1
c158 gnd n189 73.72e-18 M=1
c159 gnd n188 73.72e-18 M=1
c160 gnd n187 60.14e-18 M=1
c161 gnd n186 73.72e-18 M=1
c162 gnd n184 73.72e-18 M=1
c163 gnd n182 21.34e-18 M=1
c164 gnd n181 54.32e-18 M=1
c165 gnd n179 54.32e-18 M=1
c166 gnd n177 73.72e-18 M=1
c167 gnd n176 25.22e-18 M=1
c168 gnd n175 21.34e-18 M=1
c169 gnd n174 25.22e-18 M=1
c170 gnd n172 120.28e-18 M=1
c171 gnd n171 60.14e-18 M=1
c172 gnd n168 25.22e-18 M=1
c173 gnd n167 21.34e-18 M=1
c174 gnd n166 25.22e-18 M=1
c175 gnd n165 73.72e-18 M=1
c176 gnd n162 67.9e-18 M=1
c177 gnd n161 67.9e-18 M=1
c178 gnd n160 21.34e-18 M=1
c179 gnd n159 73.72e-18 M=1
c180 gnd n157 73.72e-18 M=1
c181 gnd n156 73.72e-18 M=1
c182 gnd n155 60.14e-18 M=1
c183 gnd n154 120.28e-18 M=1
c184 gnd n151 73.72e-18 M=1
c185 gnd n150 73.72e-18 M=1
c186 gnd n149 73.72e-18 M=1
c187 gnd n148 54.32e-18 M=1
c188 gnd n147 54.32e-18 M=1
c189 gnd n143 73.72e-18 M=1
c190 gnd n142 120.28e-18 M=1
c191 gnd n141 60.14e-18 M=1
c192 gnd n140 73.72e-18 M=1
c193 gnd n135 157.14e-18 M=1
c194 gnd n134 67.9e-18 M=1
c195 gnd n133 73.72e-18 M=1
c196 gnd n130 73.72e-18 M=1
c197 gnd n129 67.9e-18 M=1
c198 gnd n128 153.26e-18 M=1
c199 gnd n125 153.26e-18 M=1
c200 gnd n123 73.72e-18 M=1
c201 gnd n122 60.14e-18 M=1
c202 gnd n121 120.28e-18 M=1
c203 gnd n120 73.72e-18 M=1
c204 gnd n116 157.14e-18 M=1
c205 gnd n114 54.32e-18 M=1
c206 gnd n113 54.32e-18 M=1
c207 gnd n112 73.72e-18 M=1
c208 gnd n111 73.72e-18 M=1
c209 gnd n110 73.72e-18 M=1
c210 gnd n108 120.28e-18 M=1
c211 gnd n107 60.14e-18 M=1
c212 gnd n105 73.72e-18 M=1
c213 gnd n104 73.72e-18 M=1
c214 gnd n102 73.72e-18 M=1
c215 gnd n101 21.34e-18 M=1
c216 gnd n100 67.9e-18 M=1
c217 gnd n99 67.9e-18 M=1
c218 gnd n96 73.72e-18 M=1
c219 gnd n95 25.22e-18 M=1
c220 gnd n94 21.34e-18 M=1
c221 gnd n93 25.22e-18 M=1
c222 gnd n91 60.14e-18 M=1
c223 gnd n90 120.28e-18 M=1
c224 gnd n88 25.22e-18 M=1
c225 gnd n86 21.34e-18 M=1
c226 gnd n85 25.22e-18 M=1
c227 gnd n84 73.72e-18 M=1
c228 gnd n82 54.32e-18 M=1
c229 gnd n80 54.32e-18 M=1
c230 gnd n79 21.34e-18 M=1
c231 gnd n78 73.72e-18 M=1
c232 gnd n76 73.72e-18 M=1
c233 gnd n75 60.14e-18 M=1
c234 gnd n74 73.72e-18 M=1
c235 gnd n73 73.72e-18 M=1
c236 gnd n70 73.72e-18 M=1
c237 gnd n69 67.9e-18 M=1
c238 gnd n68 73.72e-18 M=1
c239 gnd n65 45.59e-18 M=1
c240 gnd n64 25.22e-18 M=1
c241 gnd n62 73.72e-18 M=1
c242 gnd n61 95.06e-18 M=1
c243 gnd n59 194e-18 M=1
c244 gnd n57 157.14e-18 M=1
c245 gnd n56 45.59e-18 M=1
c246 gnd n53 153.26e-18 M=1
c247 gnd a9 131.92e-18 M=1
c248 gnd a8 124.16e-18 M=1
c249 gnd a7 131.92e-18 M=1
c250 gnd a6 124.16e-18 M=1
c251 gnd a5 131.92e-18 M=1
c252 gnd a4 124.16e-18 M=1
c253 gnd a3 131.92e-18 M=1
c254 gnd a2 124.16e-18 M=1
c255 gnd a1 131.92e-18 M=1
c256 gnd a0 124.16e-18 M=1
c257 gnd b15 124.16e-18 M=1
c258 gnd b14 131.92e-18 M=1
c259 gnd b13 124.16e-18 M=1
c260 gnd b12 131.92e-18 M=1
c261 gnd b11 124.16e-18 M=1
c262 gnd b10 131.92e-18 M=1
c263 a15 gnd 131.92e-18 M=1
c264 a14 gnd 124.16e-18 M=1
c265 a13 gnd 131.92e-18 M=1
c266 a12 gnd 124.16e-18 M=1
c267 a11 gnd 131.92e-18 M=1
c268 a10 gnd 124.16e-18 M=1
c269 cin gnd 194e-18 M=1
c270 b9 gnd 124.16e-18 M=1
c271 b8 gnd 131.92e-18 M=1
c272 b7 gnd 124.16e-18 M=1
c273 b6 gnd 131.92e-18 M=1
c274 b5 gnd 124.16e-18 M=1
c275 b4 gnd 131.92e-18 M=1
c276 b3 gnd 124.16e-18 M=1
c277 b2 gnd 131.92e-18 M=1
c278 b1 gnd 124.16e-18 M=1
c279 b0 gnd 131.92e-18 M=1
c280 vdd n358 89.24e-18 M=1
c281 vdd n357 50.44e-18 M=1
c282 vdd n354 77.6e-18 M=1
c283 vdd n346 23.28e-18 M=1
c284 vdd n338 27.16e-18 M=1
c285 vdd n337 21.34e-18 M=1
c286 vdd n335 21.34e-18 M=1
c287 vdd n332 23.28e-18 M=1
c288 vdd n331 27.16e-18 M=1
c289 vdd n330 23.28e-18 M=1
c290 vdd n328 73.72e-18 M=1
c291 vdd n324 23.28e-18 M=1
c292 vdd n323 27.16e-18 M=1
c293 vdd n322 23.28e-18 M=1
c294 vdd n316 27.16e-18 M=1
c295 vdd n310 73.72e-18 M=1
c296 vdd n304 21.34e-18 M=1
c297 vdd n303 21.34e-18 M=1
c298 vdd n298 73.72e-18 M=1
c299 vdd n291 77.6e-18 M=1
c300 vdd n284 89.24e-18 M=1
c301 vdd n281 89.24e-18 M=1
c302 vdd n277 73.72e-18 M=1
c303 vdd n272 77.6e-18 M=1
c304 vdd n270 21.34e-18 M=1
c305 vdd n269 21.34e-18 M=1
c306 vdd n264 73.72e-18 M=1
c307 vdd n257 27.16e-18 M=1
c308 vdd n251 23.28e-18 M=1
c309 vdd n250 27.16e-18 M=1
c310 vdd n249 23.28e-18 M=1
c311 vdd n246 73.72e-18 M=1
c312 vdd n244 23.28e-18 M=1
c313 vdd n242 27.16e-18 M=1
c314 vdd n241 23.28e-18 M=1
c315 vdd n238 21.34e-18 M=1
c316 vdd n236 21.34e-18 M=1
c317 vdd n235 27.16e-18 M=1
c318 vdd n220 23.28e-18 M=1
c319 vdd n217 50.44e-18 M=1
c320 vdd n215 89.24e-18 M=1
c321 vdd n213 77.6e-18 M=1
c322 vdd n209 89.24e-18 M=1
c323 vdd n204 89.24e-18 M=1
c324 vdd n202 89.24e-18 M=1
c325 vdd n201 50.44e-18 M=1
c326 vdd n198 77.6e-18 M=1
c327 vdd n190 23.28e-18 M=1
c328 vdd n182 27.16e-18 M=1
c329 vdd n181 21.34e-18 M=1
c330 vdd n179 21.34e-18 M=1
c331 vdd n176 23.28e-18 M=1
c332 vdd n175 27.16e-18 M=1
c333 vdd n174 23.28e-18 M=1
c334 vdd n172 73.72e-18 M=1
c335 vdd n168 23.28e-18 M=1
c336 vdd n167 27.16e-18 M=1
c337 vdd n166 23.28e-18 M=1
c338 vdd n160 27.16e-18 M=1
c339 vdd n154 73.72e-18 M=1
c340 vdd n148 21.34e-18 M=1
c341 vdd n147 21.34e-18 M=1
c342 vdd n142 73.72e-18 M=1
c343 vdd n135 77.6e-18 M=1
c344 vdd n128 89.24e-18 M=1
c345 vdd n125 89.24e-18 M=1
c346 vdd n121 73.72e-18 M=1
c347 vdd n116 77.6e-18 M=1
c348 vdd n114 21.34e-18 M=1
c349 vdd n113 21.34e-18 M=1
c350 vdd n108 73.72e-18 M=1
c351 vdd n101 27.16e-18 M=1
c352 vdd n95 23.28e-18 M=1
c353 vdd n94 27.16e-18 M=1
c354 vdd n93 23.28e-18 M=1
c355 vdd n90 73.72e-18 M=1
c356 vdd n88 23.28e-18 M=1
c357 vdd n86 27.16e-18 M=1
c358 vdd n85 23.28e-18 M=1
c359 vdd n82 21.34e-18 M=1
c360 vdd n80 21.34e-18 M=1
c361 vdd n79 27.16e-18 M=1
c362 vdd n64 23.28e-18 M=1
c363 vdd n61 50.44e-18 M=1
c364 vdd n59 89.24e-18 M=1
c365 vdd n57 77.6e-18 M=1
c366 vdd n53 89.24e-18 M=1
c367 vdd a9 54.32e-18 M=1
c368 vdd a8 77.6e-18 M=1
c369 vdd a7 54.32e-18 M=1
c370 vdd a6 77.6e-18 M=1
c371 vdd a5 54.32e-18 M=1
c372 vdd a4 77.6e-18 M=1
c373 vdd a3 54.32e-18 M=1
c374 vdd a2 77.6e-18 M=1
c375 vdd a1 54.32e-18 M=1
c376 vdd a0 77.6e-18 M=1
c377 vdd b15 77.6e-18 M=1
c378 vdd b14 54.32e-18 M=1
c379 vdd b13 77.6e-18 M=1
c380 vdd b12 54.32e-18 M=1
c381 vdd b11 77.6e-18 M=1
c382 vdd b10 54.32e-18 M=1
c383 vdd a15 54.32e-18 M=1
c384 vdd a14 77.6e-18 M=1
c385 vdd a13 54.32e-18 M=1
c386 vdd a12 77.6e-18 M=1
c387 vdd a11 54.32e-18 M=1
c388 vdd a10 77.6e-18 M=1
c389 vdd cin 89.24e-18 M=1
c390 vdd b9 77.6e-18 M=1
c391 vdd b8 54.32e-18 M=1
c392 vdd b7 77.6e-18 M=1
c393 vdd b6 54.32e-18 M=1
c394 vdd b5 77.6e-18 M=1
c395 vdd b4 54.32e-18 M=1
c396 vdd b3 77.6e-18 M=1
c397 vdd b2 54.32e-18 M=1
c398 vdd b1 77.6e-18 M=1
c399 vdd b0 54.32e-18 M=1
c400 n356 n358 84.08e-18 M=1
c401 n354 n361 84.08e-18 M=1
c402 n353 n357 84.08e-18 M=1
c403 n350 n354 84.08e-18 M=1
c404 n348 n358 84.08e-18 M=1
c405 n346 n357 84.08e-18 M=1
c406 n345 n354 84.08e-18 M=1
c407 n344 n346 84.08e-18 M=1
c408 n342 n346 84.08e-18 M=1
c409 n335 n342 84.08e-18 M=1
c410 n328 n349 84.08e-18 M=1
c411 n328 n343 84.08e-18 M=1
c412 n328 n337 84.08e-18 M=1
c413 n327 n342 84.08e-18 M=1
c414 n318 n342 84.08e-18 M=1
c415 n303 n310 84.08e-18 M=1
c416 n298 n317 84.08e-18 M=1
c417 n298 n311 84.08e-18 M=1
c418 n298 n304 84.08e-18 M=1
c419 n297 n310 84.08e-18 M=1
c420 n291 n312 84.08e-18 M=1
c421 n291 n305 84.08e-18 M=1
c422 n290 n310 84.08e-18 M=1
c423 n284 n306 84.08e-18 M=1
c424 n284 n299 84.08e-18 M=1
c425 n276 n281 84.08e-18 M=1
c426 n272 n353 84.08e-18 M=1
c427 n269 n277 84.08e-18 M=1
c428 n268 n272 84.08e-18 M=1
c429 n267 n281 84.08e-18 M=1
c430 n264 n285 84.08e-18 M=1
c431 n264 n278 84.08e-18 M=1
c432 n264 n270 84.08e-18 M=1
c433 n263 n277 84.08e-18 M=1
c434 n261 n272 84.08e-18 M=1
c435 n256 n277 84.08e-18 M=1
c436 n236 n246 84.08e-18 M=1
c437 n232 n255 84.08e-18 M=1
c438 n232 n247 84.08e-18 M=1
c439 n232 n238 84.08e-18 M=1
c440 n231 n246 84.08e-18 M=1
c441 n225 n246 84.08e-18 M=1
c442 n221 n291 84.08e-18 M=1
c443 n220 n232 84.08e-18 M=1
c444 n220 n230 84.08e-18 M=1
c445 n217 n221 84.08e-18 M=1
c446 n217 n220 84.08e-18 M=1
c447 n213 n229 84.08e-18 M=1
c448 n213 n224 84.08e-18 M=1
c449 n212 n213 84.08e-18 M=1
c450 n209 n226 84.08e-18 M=1
c451 n209 n218 84.08e-18 M=1
c452 n204 n346 84.08e-18 M=1
c453 n200 n202 84.08e-18 M=1
c454 n198 n206 84.08e-18 M=1
c455 n197 n201 84.08e-18 M=1
c456 n194 n198 84.08e-18 M=1
c457 n192 n202 84.08e-18 M=1
c458 n190 n201 84.08e-18 M=1
c459 n189 n198 84.08e-18 M=1
c460 n188 n190 84.08e-18 M=1
c461 n186 n190 84.08e-18 M=1
c462 n179 n186 84.08e-18 M=1
c463 n172 n193 84.08e-18 M=1
c464 n172 n187 84.08e-18 M=1
c465 n172 n181 84.08e-18 M=1
c466 n171 n186 84.08e-18 M=1
c467 n162 n186 84.08e-18 M=1
c468 n147 n154 84.08e-18 M=1
c469 n142 n161 84.08e-18 M=1
c470 n142 n155 84.08e-18 M=1
c471 n142 n148 84.08e-18 M=1
c472 n141 n154 84.08e-18 M=1
c473 n135 n156 84.08e-18 M=1
c474 n135 n149 84.08e-18 M=1
c475 n134 n154 84.08e-18 M=1
c476 n128 n150 84.08e-18 M=1
c477 n128 n143 84.08e-18 M=1
c478 n120 n125 84.08e-18 M=1
c479 n116 n197 84.08e-18 M=1
c480 n113 n121 84.08e-18 M=1
c481 n112 n116 84.08e-18 M=1
c482 n111 n125 84.08e-18 M=1
c483 n108 n129 84.08e-18 M=1
c484 n108 n122 84.08e-18 M=1
c485 n108 n114 84.08e-18 M=1
c486 n107 n121 84.08e-18 M=1
c487 n105 n116 84.08e-18 M=1
c488 n100 n121 84.08e-18 M=1
c489 n80 n90 84.08e-18 M=1
c490 n76 n99 84.08e-18 M=1
c491 n76 n91 84.08e-18 M=1
c492 n76 n82 84.08e-18 M=1
c493 n75 n90 84.08e-18 M=1
c494 n69 n90 84.08e-18 M=1
c495 n65 n135 84.08e-18 M=1
c496 n64 n215 84.08e-18 M=1
c497 n64 n76 84.08e-18 M=1
c498 n64 n74 84.08e-18 M=1
c499 n61 n65 84.08e-18 M=1
c500 n61 n64 84.08e-18 M=1
c501 n59 n190 84.08e-18 M=1
c502 n57 n73 84.08e-18 M=1
c503 n57 n68 84.08e-18 M=1
c504 n56 n57 84.08e-18 M=1
c505 n53 n70 84.08e-18 M=1
c506 n53 n62 84.08e-18 M=1
c507 s2 n298 84.08e-18 M=1
c508 s2 n286 84.08e-18 M=1
c509 s2 n281 84.08e-18 M=1
c510 s2 n279 84.08e-18 M=1
c511 a9 n116 84.08e-18 M=1
c512 s1 n328 84.08e-18 M=1
c513 s1 n313 84.08e-18 M=1
c514 s1 n307 84.08e-18 M=1
c515 s1 n291 84.08e-18 M=1
c516 a8 n53 84.08e-18 M=1
c517 s0 n358 84.08e-18 M=1
c518 s0 n340 84.08e-18 M=1
c519 s0 n333 84.08e-18 M=1
c520 a7 n57 84.08e-18 M=1
c521 a6 n125 84.08e-18 M=1
c522 a5 n135 84.08e-18 M=1
c523 a4 n202 84.08e-18 M=1
c524 a3 n213 84.08e-18 M=1
c525 a2 n281 84.08e-18 M=1
c526 a1 n291 84.08e-18 M=1
c527 a0 n358 84.08e-18 M=1
c528 b15 n354 84.08e-18 M=1
c529 b14 n284 84.08e-18 M=1
c530 b13 n272 84.08e-18 M=1
c531 b12 n209 84.08e-18 M=1
c532 b11 n198 84.08e-18 M=1
c533 b10 n128 84.08e-18 M=1
c534 gnd n361 130.96e-18 M=1
c535 gnd n358 473.08e-18 M=1
c536 gnd n357 79.8e-18 M=1
c537 gnd n356 34.72e-18 M=1
c538 gnd n354 344.56e-18 M=1
c539 gnd n353 130.96e-18 M=1
c540 gnd n350 34.72e-18 M=1
c541 gnd n349 127.76e-18 M=1
c542 gnd n348 123.04e-18 M=1
c543 gnd n346 396.48e-18 M=1
c544 gnd n345 123.04e-18 M=1
c545 gnd n344 34.72e-18 M=1
c546 gnd n343 99.44e-18 M=1
c547 gnd n342 228.24e-18 M=1
c548 gnd n340 123.04e-18 M=1
c549 gnd n338 93.2e-18 M=1
c550 gnd n337 42.64e-18 M=1
c551 gnd n335 42.64e-18 M=1
c552 gnd n333 34.72e-18 M=1
c553 gnd n332 34.72e-18 M=1
c554 gnd n331 93.2e-18 M=1
c555 gnd n330 34.72e-18 M=1
c556 gnd n328 228.24e-18 M=1
c557 gnd n327 99.44e-18 M=1
c558 gnd n324 34.72e-18 M=1
c559 gnd n323 93.2e-18 M=1
c560 gnd n322 34.72e-18 M=1
c561 gnd n321 34.72e-18 M=1
c562 gnd n318 127.76e-18 M=1
c563 gnd n317 127.76e-18 M=1
c564 gnd n316 93.2e-18 M=1
c565 gnd n315 123.04e-18 M=1
c566 gnd n313 123.04e-18 M=1
c567 gnd n312 123.04e-18 M=1
c568 gnd n311 99.44e-18 M=1
c569 gnd n310 250.48e-18 M=1
c570 gnd n307 34.72e-18 M=1
c571 gnd n306 123.04e-18 M=1
c572 gnd n305 34.72e-18 M=1
c573 gnd n304 42.64e-18 M=1
c574 gnd n303 42.64e-18 M=1
c575 gnd n299 34.72e-18 M=1
c576 gnd n298 250.48e-18 M=1
c577 gnd n297 99.44e-18 M=1
c578 gnd n296 34.72e-18 M=1
c579 gnd n291 344.56e-18 M=1
c580 gnd n290 127.76e-18 M=1
c581 gnd n289 123.04e-18 M=1
c582 gnd n286 123.04e-18 M=1
c583 gnd n285 127.76e-18 M=1
c584 gnd n284 344.56e-18 M=1
c585 gnd n281 344.56e-18 M=1
c586 gnd n279 34.72e-18 M=1
c587 gnd n278 99.44e-18 M=1
c588 gnd n277 250.48e-18 M=1
c589 gnd n276 34.72e-18 M=1
c590 gnd n272 344.56e-18 M=1
c591 gnd n270 42.64e-18 M=1
c592 gnd n269 42.64e-18 M=1
c593 gnd n268 34.72e-18 M=1
c594 gnd n267 123.04e-18 M=1
c595 gnd n266 34.72e-18 M=1
c596 gnd n264 250.48e-18 M=1
c597 gnd n263 99.44e-18 M=1
c598 gnd n261 123.04e-18 M=1
c599 gnd n260 123.04e-18 M=1
c600 gnd n258 123.04e-18 M=1
c601 gnd n257 93.2e-18 M=1
c602 gnd n256 127.76e-18 M=1
c603 gnd n255 127.76e-18 M=1
c604 gnd n252 34.72e-18 M=1
c605 gnd n251 34.72e-18 M=1
c606 gnd n250 93.2e-18 M=1
c607 gnd n249 34.72e-18 M=1
c608 gnd n247 99.44e-18 M=1
c609 gnd n246 228.24e-18 M=1
c610 gnd n244 34.72e-18 M=1
c611 gnd n242 93.2e-18 M=1
c612 gnd n241 34.72e-18 M=1
c613 gnd n240 34.72e-18 M=1
c614 gnd n238 42.64e-18 M=1
c615 gnd n236 42.64e-18 M=1
c616 gnd n235 93.2e-18 M=1
c617 gnd n234 123.04e-18 M=1
c618 gnd n232 228.24e-18 M=1
c619 gnd n231 99.44e-18 M=1
c620 gnd n230 34.72e-18 M=1
c621 gnd n229 123.04e-18 M=1
c622 gnd n226 123.04e-18 M=1
c623 gnd n225 127.76e-18 M=1
c624 gnd n224 34.72e-18 M=1
c625 gnd n221 130.96e-18 M=1
c626 gnd n220 396.48e-18 M=1
c627 gnd n218 34.72e-18 M=1
c628 gnd n217 79.8e-18 M=1
c629 gnd n215 34.72e-18 M=1
c630 gnd n213 344.56e-18 M=1
c631 gnd n212 130.96e-18 M=1
c632 gnd n209 473.08e-18 M=1
c633 gnd n206 130.96e-18 M=1
c634 gnd n204 34.72e-18 M=1
c635 gnd n202 473.08e-18 M=1
c636 gnd n201 79.8e-18 M=1
c637 gnd n200 34.72e-18 M=1
c638 gnd n198 344.56e-18 M=1
c639 gnd n197 130.96e-18 M=1
c640 gnd n194 34.72e-18 M=1
c641 gnd n193 127.76e-18 M=1
c642 gnd n192 123.04e-18 M=1
c643 gnd n190 396.48e-18 M=1
c644 gnd n189 123.04e-18 M=1
c645 gnd n188 34.72e-18 M=1
c646 gnd n187 99.44e-18 M=1
c647 gnd n186 228.24e-18 M=1
c648 gnd n184 123.04e-18 M=1
c649 gnd n182 93.2e-18 M=1
c650 gnd n181 42.64e-18 M=1
c651 gnd n179 42.64e-18 M=1
c652 gnd n177 34.72e-18 M=1
c653 gnd n176 34.72e-18 M=1
c654 gnd n175 93.2e-18 M=1
c655 gnd n174 34.72e-18 M=1
c656 gnd n172 228.24e-18 M=1
c657 gnd n171 99.44e-18 M=1
c658 gnd n168 34.72e-18 M=1
c659 gnd n167 93.2e-18 M=1
c660 gnd n166 34.72e-18 M=1
c661 gnd n165 34.72e-18 M=1
c662 gnd n162 127.76e-18 M=1
c663 gnd n161 127.76e-18 M=1
c664 gnd n160 93.2e-18 M=1
c665 gnd n159 123.04e-18 M=1
c666 gnd n157 123.04e-18 M=1
c667 gnd n156 123.04e-18 M=1
c668 gnd n155 99.44e-18 M=1
c669 gnd n154 250.48e-18 M=1
c670 gnd n151 34.72e-18 M=1
c671 gnd n150 123.04e-18 M=1
c672 gnd n149 34.72e-18 M=1
c673 gnd n148 42.64e-18 M=1
c674 gnd n147 42.64e-18 M=1
c675 gnd n143 34.72e-18 M=1
c676 gnd n142 250.48e-18 M=1
c677 gnd n141 99.44e-18 M=1
c678 gnd n140 34.72e-18 M=1
c679 gnd n135 344.56e-18 M=1
c680 gnd n134 127.76e-18 M=1
c681 gnd n133 123.04e-18 M=1
c682 gnd n130 123.04e-18 M=1
c683 gnd n129 127.76e-18 M=1
c684 gnd n128 344.56e-18 M=1
c685 gnd n125 344.56e-18 M=1
c686 gnd n123 34.72e-18 M=1
c687 gnd n122 99.44e-18 M=1
c688 gnd n121 250.48e-18 M=1
c689 gnd n120 34.72e-18 M=1
c690 gnd n116 344.56e-18 M=1
c691 gnd n114 42.64e-18 M=1
c692 gnd n113 42.64e-18 M=1
c693 gnd n112 34.72e-18 M=1
c694 gnd n111 123.04e-18 M=1
c695 gnd n110 34.72e-18 M=1
c696 gnd n108 250.48e-18 M=1
c697 gnd n107 99.44e-18 M=1
c698 gnd n105 123.04e-18 M=1
c699 gnd n104 123.04e-18 M=1
c700 gnd n102 123.04e-18 M=1
c701 gnd n101 93.2e-18 M=1
c702 gnd n100 127.76e-18 M=1
c703 gnd n99 127.76e-18 M=1
c704 gnd n96 34.72e-18 M=1
c705 gnd n95 34.72e-18 M=1
c706 gnd n94 93.2e-18 M=1
c707 gnd n93 34.72e-18 M=1
c708 gnd n91 99.44e-18 M=1
c709 gnd n90 228.24e-18 M=1
c710 gnd n88 34.72e-18 M=1
c711 gnd n86 93.2e-18 M=1
c712 gnd n85 34.72e-18 M=1
c713 gnd n84 34.72e-18 M=1
c714 gnd n82 42.64e-18 M=1
c715 gnd n80 42.64e-18 M=1
c716 gnd n79 93.2e-18 M=1
c717 gnd n78 123.04e-18 M=1
c718 gnd n76 228.24e-18 M=1
c719 gnd n75 99.44e-18 M=1
c720 gnd n74 34.72e-18 M=1
c721 gnd n73 123.04e-18 M=1
c722 gnd n70 123.04e-18 M=1
c723 gnd n69 127.76e-18 M=1
c724 gnd n68 34.72e-18 M=1
c725 gnd n65 130.96e-18 M=1
c726 gnd n64 396.48e-18 M=1
c727 gnd n62 34.72e-18 M=1
c728 gnd n61 79.8e-18 M=1
c729 gnd n59 34.72e-18 M=1
c730 gnd n57 344.56e-18 M=1
c731 gnd n56 130.96e-18 M=1
c732 gnd n53 473.08e-18 M=1
c733 gnd s2 344.56e-18 M=1
c734 gnd a9 128.52e-18 M=1
c735 gnd s1 344.56e-18 M=1
c736 gnd s0 344.56e-18 M=1
c737 gnd a7 128.52e-18 M=1
c738 gnd a5 128.52e-18 M=1
c739 gnd a3 128.52e-18 M=1
c740 gnd a1 128.52e-18 M=1
c741 gnd b14 128.52e-18 M=1
c742 gnd b12 128.52e-18 M=1
c743 gnd b10 128.52e-18 M=1
c744 a15 n354 84.08e-18 M=1
c745 a15 gnd 128.52e-18 M=1
c746 a14 n284 84.08e-18 M=1
c747 a13 n272 84.08e-18 M=1
c748 a13 gnd 128.52e-18 M=1
c749 a12 n209 84.08e-18 M=1
c750 a11 n198 84.08e-18 M=1
c751 a11 gnd 128.52e-18 M=1
c752 a10 n128 84.08e-18 M=1
c753 cin n220 84.08e-18 M=1
c754 cin s0 84.08e-18 M=1
c755 s15 n354 84.08e-18 M=1
c756 s15 n321 84.08e-18 M=1
c757 s15 n315 84.08e-18 M=1
c758 s15 n310 84.08e-18 M=1
c759 s15 gnd 344.56e-18 M=1
c760 s14 n296 84.08e-18 M=1
c761 s14 n289 84.08e-18 M=1
c762 s14 n284 84.08e-18 M=1
c763 s14 n277 84.08e-18 M=1
c764 s14 gnd 344.56e-18 M=1
c765 s13 n272 84.08e-18 M=1
c766 s13 n266 84.08e-18 M=1
c767 s13 n260 84.08e-18 M=1
c768 s13 n246 84.08e-18 M=1
c769 s13 gnd 344.56e-18 M=1
c770 s12 n240 84.08e-18 M=1
c771 s12 n234 84.08e-18 M=1
c772 s12 n209 84.08e-18 M=1
c773 s12 n204 84.08e-18 M=1
c774 s12 gnd 344.56e-18 M=1
c775 s11 n198 84.08e-18 M=1
c776 s11 n165 84.08e-18 M=1
c777 s11 n159 84.08e-18 M=1
c778 s11 n154 84.08e-18 M=1
c779 s11 gnd 344.56e-18 M=1
c780 s10 n140 84.08e-18 M=1
c781 s10 n133 84.08e-18 M=1
c782 s10 n128 84.08e-18 M=1
c783 s10 n121 84.08e-18 M=1
c784 s10 gnd 344.56e-18 M=1
c785 cout gnd 34.72e-18 M=1
c786 b9 n116 84.08e-18 M=1
c787 b8 n53 84.08e-18 M=1
c788 b8 gnd 128.52e-18 M=1
c789 b7 n57 84.08e-18 M=1
c790 b6 n125 84.08e-18 M=1
c791 b6 gnd 128.52e-18 M=1
c792 b5 n135 84.08e-18 M=1
c793 b4 n202 84.08e-18 M=1
c794 b4 gnd 128.52e-18 M=1
c795 s9 n116 84.08e-18 M=1
c796 s9 n110 84.08e-18 M=1
c797 s9 n104 84.08e-18 M=1
c798 s9 n90 84.08e-18 M=1
c799 s9 gnd 344.56e-18 M=1
c800 b3 n213 84.08e-18 M=1
c801 s8 n84 84.08e-18 M=1
c802 s8 n78 84.08e-18 M=1
c803 s8 n59 84.08e-18 M=1
c804 s8 n53 84.08e-18 M=1
c805 s8 gnd 344.56e-18 M=1
c806 b2 n281 84.08e-18 M=1
c807 b2 gnd 128.52e-18 M=1
c808 s7 n108 84.08e-18 M=1
c809 s7 n102 84.08e-18 M=1
c810 s7 n96 84.08e-18 M=1
c811 s7 n57 84.08e-18 M=1
c812 s7 gnd 344.56e-18 M=1
c813 b1 n291 84.08e-18 M=1
c814 s6 n142 84.08e-18 M=1
c815 s6 n130 84.08e-18 M=1
c816 s6 n125 84.08e-18 M=1
c817 s6 n123 84.08e-18 M=1
c818 s6 gnd 344.56e-18 M=1
c819 b0 n358 84.08e-18 M=1
c820 b0 gnd 128.52e-18 M=1
c821 s5 n172 84.08e-18 M=1
c822 s5 n157 84.08e-18 M=1
c823 s5 n151 84.08e-18 M=1
c824 s5 n135 84.08e-18 M=1
c825 s5 gnd 344.56e-18 M=1
c826 vdd n435 29.32e-18 M=1
c827 vdd n434 58.64e-18 M=1
c828 vdd n433 58.64e-18 M=1
c829 vdd n432 58.64e-18 M=1
c830 vdd n431 58.64e-18 M=1
c831 vdd n430 58.64e-18 M=1
c832 vdd n429 58.64e-18 M=1
c833 vdd n428 29.32e-18 M=1
c834 vdd n427 29.32e-18 M=1
c835 vdd n426 58.64e-18 M=1
c836 vdd n425 58.64e-18 M=1
c837 vdd n424 58.64e-18 M=1
c838 vdd n423 58.64e-18 M=1
c839 vdd n422 58.64e-18 M=1
c840 vdd n421 58.64e-18 M=1
c841 vdd n420 29.32e-18 M=1
c842 vdd n361 69.44e-18 M=1
c843 vdd n358 53e-18 M=1
c844 vdd n357 60.76e-18 M=1
c845 vdd n356 34.72e-18 M=1
c846 vdd n354 34.72e-18 M=1
c847 vdd n353 69.44e-18 M=1
c848 vdd n350 34.72e-18 M=1
c849 vdd n349 34.72e-18 M=1
c850 vdd n348 56.96e-18 M=1
c851 vdd n346 34.72e-18 M=1
c852 vdd n345 56.96e-18 M=1
c853 vdd n344 34.72e-18 M=1
c854 vdd n343 34.72e-18 M=1
c855 vdd n342 69.44e-18 M=1
c856 vdd n340 56.96e-18 M=1
c857 vdd n338 61.68e-18 M=1
c858 vdd n337 42.64e-18 M=1
c859 vdd n335 42.64e-18 M=1
c860 vdd n333 34.72e-18 M=1
c861 vdd n332 34.72e-18 M=1
c862 vdd n331 61.68e-18 M=1
c863 vdd n330 34.72e-18 M=1
c864 vdd n328 69.44e-18 M=1
c865 vdd n327 34.72e-18 M=1
c866 vdd n324 34.72e-18 M=1
c867 vdd n323 61.68e-18 M=1
c868 vdd n322 34.72e-18 M=1
c869 vdd n321 34.72e-18 M=1
c870 vdd n318 34.72e-18 M=1
c871 vdd n317 34.72e-18 M=1
c872 vdd n316 61.68e-18 M=1
c873 vdd n315 56.96e-18 M=1
c874 vdd n313 56.96e-18 M=1
c875 vdd n312 56.96e-18 M=1
c876 vdd n311 34.72e-18 M=1
c877 vdd n310 124.72e-18 M=1
c878 vdd n307 34.72e-18 M=1
c879 vdd n306 56.96e-18 M=1
c880 vdd n305 34.72e-18 M=1
c881 vdd n304 42.64e-18 M=1
c882 vdd n303 42.64e-18 M=1
c883 vdd n299 34.72e-18 M=1
c884 vdd n298 124.72e-18 M=1
c885 vdd n297 34.72e-18 M=1
c886 vdd n296 34.72e-18 M=1
c887 vdd n291 34.72e-18 M=1
c888 vdd n290 34.72e-18 M=1
c889 vdd n289 56.96e-18 M=1
c890 vdd n286 56.96e-18 M=1
c891 vdd n285 34.72e-18 M=1
c892 vdd n284 34.72e-18 M=1
c893 vdd n281 34.72e-18 M=1
c894 vdd n279 34.72e-18 M=1
c895 vdd n278 34.72e-18 M=1
c896 vdd n277 124.72e-18 M=1
c897 vdd n276 34.72e-18 M=1
c898 vdd n272 34.72e-18 M=1
c899 vdd n270 42.64e-18 M=1
c900 vdd n269 42.64e-18 M=1
c901 vdd n268 34.72e-18 M=1
c902 vdd n267 56.96e-18 M=1
c903 vdd n266 34.72e-18 M=1
c904 vdd n264 124.72e-18 M=1
c905 vdd n263 34.72e-18 M=1
c906 vdd n261 56.96e-18 M=1
c907 vdd n260 56.96e-18 M=1
c908 vdd n258 56.96e-18 M=1
c909 vdd n257 61.68e-18 M=1
c910 vdd n256 34.72e-18 M=1
c911 vdd n255 34.72e-18 M=1
c912 vdd n252 34.72e-18 M=1
c913 vdd n251 34.72e-18 M=1
c914 vdd n250 61.68e-18 M=1
c915 vdd n249 34.72e-18 M=1
c916 vdd n247 34.72e-18 M=1
c917 vdd n246 69.44e-18 M=1
c918 vdd n244 34.72e-18 M=1
c919 vdd n242 61.68e-18 M=1
c920 vdd n241 34.72e-18 M=1
c921 vdd n240 34.72e-18 M=1
c922 vdd n238 42.64e-18 M=1
c923 vdd n236 42.64e-18 M=1
c924 vdd n235 61.68e-18 M=1
c925 vdd n234 56.96e-18 M=1
c926 vdd n232 69.44e-18 M=1
c927 vdd n231 34.72e-18 M=1
c928 vdd n230 34.72e-18 M=1
c929 vdd n229 56.96e-18 M=1
c930 vdd n226 56.96e-18 M=1
c931 vdd n225 34.72e-18 M=1
c932 vdd n224 34.72e-18 M=1
c933 vdd n221 69.44e-18 M=1
c934 vdd n220 34.72e-18 M=1
c935 vdd n218 34.72e-18 M=1
c936 vdd n217 60.76e-18 M=1
c937 vdd n215 34.72e-18 M=1
c938 vdd n213 34.72e-18 M=1
c939 vdd n212 69.44e-18 M=1
c940 vdd n209 53e-18 M=1
c941 vdd n206 69.44e-18 M=1
c942 vdd n204 34.72e-18 M=1
c943 vdd n202 53e-18 M=1
c944 vdd n201 60.76e-18 M=1
c945 vdd n200 34.72e-18 M=1
c946 vdd n198 34.72e-18 M=1
c947 vdd n197 69.44e-18 M=1
c948 vdd n194 34.72e-18 M=1
c949 vdd n193 34.72e-18 M=1
c950 vdd n192 56.96e-18 M=1
c951 vdd n190 34.72e-18 M=1
c952 vdd n189 56.96e-18 M=1
c953 vdd n188 34.72e-18 M=1
c954 vdd n187 34.72e-18 M=1
c955 vdd n186 69.44e-18 M=1