
** Library name: Assignment2
** Cell name: symbol
** View name: schematic
.subckt symbol gnd in out vdd
