
** Library name: Project_416
** Cell name: propagate
** View name: schematic
.subckt propagate a b p vdd gnd
