
** Library name: Project_416
** Cell name: CBA_16bit
** View name: schematic
.subckt CBA_16bit a0 a1 a10 a11 a12 a13 a14 a15 a2 a3 a4 a5 a6 a7 a8 a9 b0 b1 b10 b11 b12 b13 b14 b15 b2 b3 b4 b5 b6 b7 b8 b9 cin cout s0 s1 s10 s11 s12 s13 s14 s15 s2 s3 s4 s5 s6 s7 s8 s9 vdd gnd
