

.PROBE DC
+    I1(mn0)
.DC vgs 0.0 1.8 50e-3

.TEMP 25.0
.OPTION
+    ARTIST=2
+    INGOLD=2
+    PARHIER=LOCAL
+    PSF=2
