
** Library name: Project_416
** Cell name: carry
** View name: schematic
.subckt carry carry cin g gnd p vdd
